
FoamFile
{
    version     2.0;
    format      ascii;
    class       dictionary;
    object      fvSolution;
}
// * * * * * * * * * * * * * * * * * * * * * * * * * * * * * * * * * * * * * //

solvers
{
    p_rgh
    {
        solver          GAMG;
        smoother        DIC;
        tolerance       1e-8;
        relTol          0.01;
    }

    p_rghFinal
    {
        $p_rgh;
        relTol          0;
    }

    "(U|T|k|epsilon)"
    {
        solver          PBiCGStab;
        preconditioner  DILU;
        tolerance       1e-8;
        relTol          0.01;
    }

    "(U|T|k|epsilon)Final"
    {
        $T;
        relTol          0;
    }
}

PIMPLE
{
    momentumPredictor no;
    nNonOrthogonalCorrectors 0;
    nCorrectors       2;
    pRefCell          0;
    pRefValue         0;
}

relaxationFactors
{
	fields
    {        
        p_rgh               0.6;        
        p               0.6;        
    }
	
    equations
    {
        //".*"   1.0;
        ".*"   0.7;
    }
}


// ************************************************************************* //
