FoamFile
{
	version	2.0;
	format	binary;
	class	volScalarField;
	location	"0/fluid";
	object	p;
	arch	"LSB;label=32;scalar=64";
}
dimensions	[1 -1 -2 0 0 0 0];
internalField	uniform 100000;
boundaryField
{
	wall
	{
		type	calculated;
		value	uniform 100000;
	}
	
	cpu-fluid
	{
		type	calculated;
		value	uniform 100000;
	}
	
	inlet
	{
		type	calculated;
		value	uniform 100000;
	}
	outlet
	{
		type	calculated;
		value	uniform 100000;
	}
}
