
FoamFile
{
    version     2.0;
    format      ascii;
    class       dictionary;
    object      controlDict;
}
// * * * * * * * * * * * * * * * * * * * * * * * * * * * * * * * * * * * * * //

//DebugSwitches
//{
//    GAMGAgglomeration   1;
//}

application     rhoSimpleFoam;

startFrom       startTime;
//startFrom       latestTime;

startTime       0;

stopAt          endTime;

endTime         2000;

deltaT          1;

writeControl    timeStep;

writeInterval   20;

purgeWrite      0;

writeFormat     binary;

writePrecision  8;

writeCompression off;

timeFormat      general;

timePrecision   6;

//graphFormat     raw;

runTimeModifiable true;

//functions
//{
//    #include "abort"
//}


// ************************************************************************* //
