
FoamFile
{
    version     2.0;
    format      ascii;
    class       dictionary;
    object      fvSchemes;
}
// * * * * * * * * * * * * * * * * * * * * * * * * * * * * * * * * * * * * * //

ddtSchemes
{
    default             steadyState;
}

gradSchemes
{
    default             Gauss linear;

    limited             cellLimited Gauss linear 1;
    grad(U)         $limited;
    grad(k)         $limited;
    grad(omega)     $limited;
    grad(subsetU)   $limited;
    grad(p)         cellLimited Gauss linear 0.333;
    grad(h)         cellLimited Gauss linear 0.333;
}

divSchemes
{
    default             none;

    div(phi,U)          bounded Gauss linearUpwind limited;
    //div(phid,p)         Gauss limitedLinear 1;
    div(phid,p)         Gauss upwind;

    energy          bounded Gauss linearUpwind limited;
    div(phi,e)      $energy;
    div(phi,K)      $energy;
    div(phi,Ekp)    $energy;

    turbulence          bounded Gauss upwind;
    div(phi,k)          $turbulence;
    div(phi,omega)      $turbulence;

    div((phi|interpolate(rho)),p)  bounded Gauss upwind;
    div(((rho*nuEff)*dev2(T(grad(U)))))      Gauss linear;
}

laplacianSchemes
{
    default         Gauss linear corrected;
}

interpolationSchemes
{
    default         linear;
}

snGradSchemes
{
    default         corrected;
}

wallDist
{
    method          meshWave;
}

// ************************************************************************* //
