/*--------------------------------*- C++ -*----------------------------------*\
| =========                 |                                                 |
| \\      /  F ield         | OpenFOAM: The Open Source CFD Toolbox           |
|  \\    /   O peration     | Version:  v2406                                 |
|   \\  /    A nd           | Website:  www.openfoam.com                      |
|    \\/     M anipulation  |                                                 |
\*---------------------------------------------------------------------------*/
FoamFile
{
    version         2.0;
    format          ascii;
    class           dictionary;
    object          sample;
}
// * * * * * * * * * * * * * * * * * * * * * * * * * * * * * * * * * * * * * //

type            sets;
libs            (sampling);
interpolationScheme cellPointFace;
setFormat       raw;

fields          (p);

sets
{
    point
    {
        type            cloud;
        axis            xyz;
        points
        (
            (0.023230906718363673 0.18151424085471002 -0.20709116888143955)
        );
    }
}


// ************************************************************************* //
