FoamFile
{
	version	2.0;
	format	ascii;
	class	polyBoundaryMesh;
	location	"constant/polyMesh";
	object	boundary;
}
5
(
	boundaries
	{
		type	wall;
		startFace	207357;
		nFaces	5563;
	}
	board
	{
		type	wall;
		startFace	212920;
		nFaces	16833;
	}
	cpu
	{
		type	wall;
		startFace	229753;
		nFaces	1554;
	}
	fan
	{
		type	wall;
		startFace	231307;
		nFaces	899;
	}
	fan_inlet
	{
		type	patch;
		startFace	232206;
		nFaces	433;
	}
)